/*--------------------------------*- C++ -*----------------------------------*\
  =========                 |
  \\      /  F ield         | OpenFOAM: The Open Source CFD Toolbox
   \\    /   O peration     | Website:  https://openfoam.org
    \\  /    A nd           | Version:  7
     \\/     M anipulation  |
\*---------------------------------------------------------------------------*/
FoamFile
{
    version     2.0;
    format      ascii;
    class       extendedFeatureEdgeMesh;
    location    "constant/extendedFeatureEdgeMesh";
    object      sphere.extendedFeatureEdgeMesh;
}
// * * * * * * * * * * * * * * * * * * * * * * * * * * * * * * * * * * * * * //

// points

962
(
(0 0 21)
(0 0 -21)
(2.12453 0 20.8923)
(2.08371 0.414476 20.8923)
(1.96281 0.813024 20.8923)
(1.76649 1.18033 20.8923)
(1.50227 1.50227 20.8923)
(1.18033 1.76649 20.8923)
(0.813024 1.96281 20.8923)
(0.414476 2.08371 20.8923)
(1.3009e-16 2.12453 20.8923)
(-0.414476 2.08371 20.8923)
(-0.813024 1.96281 20.8923)
(-1.18033 1.76649 20.8923)
(-1.50227 1.50227 20.8923)
(-1.76649 1.18033 20.8923)
(-1.96281 0.813024 20.8923)
(-2.08371 0.414476 20.8923)
(-2.12453 2.6018e-16 20.8923)
(-2.08371 -0.414476 20.8923)
(-1.96281 -0.813024 20.8923)
(-1.76649 -1.18033 20.8923)
(-1.50227 -1.50227 20.8923)
(-1.18033 -1.76649 20.8923)
(-0.813024 -1.96281 20.8923)
(-0.414476 -2.08371 20.8923)
(-3.90271e-16 -2.12453 20.8923)
(0.414476 -2.08371 20.8923)
(0.813024 -1.96281 20.8923)
(1.18033 -1.76649 20.8923)
(1.50227 -1.50227 20.8923)
(1.76649 -1.18033 20.8923)
(1.96281 -0.813024 20.8923)
(2.08371 -0.414476 20.8923)
(2.12453 0 -20.8923)
(2.08371 0.414476 -20.8923)
(1.96281 0.813024 -20.8923)
(1.76649 1.18033 -20.8923)
(1.50227 1.50227 -20.8923)
(1.18033 1.76649 -20.8923)
(0.813024 1.96281 -20.8923)
(0.414476 2.08371 -20.8923)
(1.3009e-16 2.12453 -20.8923)
(-0.414476 2.08371 -20.8923)
(-0.813024 1.96281 -20.8923)
(-1.18033 1.76649 -20.8923)
(-1.50227 1.50227 -20.8923)
(-1.76649 1.18033 -20.8923)
(-1.96281 0.813024 -20.8923)
(-2.08371 0.414476 -20.8923)
(-2.12453 2.6018e-16 -20.8923)
(-2.08371 -0.414476 -20.8923)
(-1.96281 -0.813024 -20.8923)
(-1.76649 -1.18033 -20.8923)
(-1.50227 -1.50227 -20.8923)
(-1.18033 -1.76649 -20.8923)
(-0.813024 -1.96281 -20.8923)
(-0.414476 -2.08371 -20.8923)
(-3.90271e-16 -2.12453 -20.8923)
(0.414476 -2.08371 -20.8923)
(0.813024 -1.96281 -20.8923)
(1.18033 -1.76649 -20.8923)
(1.50227 -1.50227 -20.8923)
(1.76649 -1.18033 -20.8923)
(1.96281 -0.813024 -20.8923)
(2.08371 -0.414476 -20.8923)
(4.22727 0 20.5701)
(4.14604 0.824699 20.5701)
(6.28663 0 20.0369)
(6.16583 1.22646 20.0369)
(8.28147 0 19.2981)
(8.12235 1.61564 19.2981)
(10.1913 0 18.3613)
(9.99552 1.98823 18.3613)
(11.9966 0 17.236)
(11.7661 2.34043 17.236)
(13.6788 0 15.9339)
(13.416 2.66861 15.9339)
(15.2206 0 14.4683)
(14.9282 2.9694 14.4683)
(16.6063 0 12.8542)
(16.2872 3.23973 12.8542)
(17.8215 0 11.1082)
(17.4791 3.47681 11.1082)
(18.8539 0 9.24828)
(18.4916 3.67821 9.24828)
(19.6928 0 7.29341)
(19.3144 3.84187 7.29341)
(20.3296 0 5.2637)
(19.939 3.96611 5.2637)
(20.7578 0 3.17998)
(20.359 4.04965 3.17998)
(20.973 0 1.06363)
(20.5701 4.09164 1.06363)
(20.973 0 -1.06363)
(20.5701 4.09164 -1.06363)
(20.7578 0 -3.17998)
(20.359 4.04965 -3.17998)
(20.3296 0 -5.2637)
(19.939 3.96611 -5.2637)
(19.6928 0 -7.29341)
(19.3144 3.84187 -7.29341)
(18.8539 0 -9.24828)
(18.4916 3.67821 -9.24828)
(17.8215 0 -11.1082)
(17.4791 3.47681 -11.1082)
(16.6063 0 -12.8542)
(16.2872 3.23973 -12.8542)
(15.2206 0 -14.4683)
(14.9282 2.9694 -14.4683)
(13.6788 0 -15.9339)
(13.416 2.66861 -15.9339)
(11.9966 0 -17.236)
(11.7661 2.34043 -17.236)
(10.1913 0 -18.3613)
(9.99552 1.98823 -18.3613)
(8.28147 0 -19.2981)
(8.12235 1.61564 -19.2981)
(6.28663 0 -20.0369)
(6.16583 1.22646 -20.0369)
(4.22727 0 -20.5701)
(4.14604 0.824699 -20.5701)
(3.90549 1.61771 20.5701)
(5.80808 2.40579 20.0369)
(7.65108 3.16918 19.2981)
(9.41557 3.90006 18.3613)
(11.0834 4.59091 17.236)
(12.6376 5.23466 15.9339)
(14.062 5.82469 14.4683)
(15.3422 6.35495 12.8542)
(16.4649 6.82 11.1082)
(17.4187 7.21507 9.24828)
(18.1938 7.53611 7.29341)
(18.7821 7.77981 5.2637)
(19.1777 7.94368 3.17998)
(19.3766 8.02604 1.06363)
(19.3766 8.02604 -1.06363)
(19.1777 7.94368 -3.17998)
(18.7821 7.77981 -5.2637)
(18.1938 7.53611 -7.29341)
(17.4187 7.21507 -9.24828)
(16.4649 6.82 -11.1082)
(15.3422 6.35495 -12.8542)
(14.062 5.82469 -14.4683)
(12.6376 5.23466 -15.9339)
(11.0834 4.59091 -17.236)
(9.41557 3.90006 -18.3613)
(7.65108 3.16918 -19.2981)
(5.80808 2.40579 -20.0369)
(3.90549 1.61771 -20.5701)
(3.51485 2.34854 20.5701)
(5.22714 3.49266 20.0369)
(6.88579 4.60094 19.2981)
(8.47379 5.66201 18.3613)
(9.97484 6.66497 17.236)
(11.3735 7.59955 15.9339)
(12.6555 8.45614 14.4683)
(13.8076 9.22596 12.8542)
(14.8181 9.90111 11.1082)
(15.6764 10.4747 9.24828)
(16.374 10.9407 7.29341)
(16.9035 11.2945 5.2637)
(17.2595 11.5324 3.17998)
(17.4385 11.652 1.06363)
(17.4385 11.652 -1.06363)
(17.2595 11.5324 -3.17998)
(16.9035 11.2945 -5.2637)
(16.374 10.9407 -7.29341)
(15.6764 10.4747 -9.24828)
(14.8181 9.90111 -11.1082)
(13.8076 9.22596 -12.8542)
(12.6555 8.45614 -14.4683)
(11.3735 7.59955 -15.9339)
(9.97484 6.66497 -17.236)
(8.47379 5.66201 -18.3613)
(6.88579 4.60094 -19.2981)
(5.22714 3.49266 -20.0369)
(3.51485 2.34854 -20.5701)
(2.98913 2.98913 20.5701)
(4.44532 4.44532 20.0369)
(5.85589 5.85589 19.2981)
(7.20637 7.20637 18.3613)
(8.4829 8.4829 17.236)
(9.67239 9.67239 15.9339)
(10.7626 10.7626 14.4683)
(11.7424 11.7424 12.8542)
(12.6017 12.6017 11.1082)
(13.3317 13.3317 9.24828)
(13.9249 13.9249 7.29341)
(14.3752 14.3752 5.2637)
(14.678 14.678 3.17998)
(14.8302 14.8302 1.06363)
(14.8302 14.8302 -1.06363)
(14.678 14.678 -3.17998)
(14.3752 14.3752 -5.2637)
(13.9249 13.9249 -7.29341)
(13.3317 13.3317 -9.24828)
(12.6017 12.6017 -11.1082)
(11.7424 11.7424 -12.8542)
(10.7626 10.7626 -14.4683)
(9.67239 9.67239 -15.9339)
(8.4829 8.4829 -17.236)
(7.20637 7.20637 -18.3613)
(5.85589 5.85589 -19.2981)
(4.44532 4.44532 -20.0369)
(2.98913 2.98913 -20.5701)
(2.34854 3.51485 20.5701)
(3.49266 5.22714 20.0369)
(4.60094 6.88579 19.2981)
(5.66201 8.47379 18.3613)
(6.66497 9.97484 17.236)
(7.59955 11.3735 15.9339)
(8.45614 12.6555 14.4683)
(9.22596 13.8076 12.8542)
(9.90111 14.8181 11.1082)
(10.4747 15.6764 9.24828)
(10.9407 16.374 7.29341)
(11.2945 16.9035 5.2637)
(11.5324 17.2595 3.17998)
(11.652 17.4385 1.06363)
(11.652 17.4385 -1.06363)
(11.5324 17.2595 -3.17998)
(11.2945 16.9035 -5.2637)
(10.9407 16.374 -7.29341)
(10.4747 15.6764 -9.24828)
(9.90111 14.8181 -11.1082)
(9.22596 13.8076 -12.8542)
(8.45614 12.6555 -14.4683)
(7.59955 11.3735 -15.9339)
(6.66497 9.97484 -17.236)
(5.66201 8.47379 -18.3613)
(4.60094 6.88579 -19.2981)
(3.49266 5.22714 -20.0369)
(2.34854 3.51485 -20.5701)
(1.61771 3.90549 20.5701)
(2.40579 5.80808 20.0369)
(3.16918 7.65108 19.2981)
(3.90006 9.41557 18.3613)
(4.59091 11.0834 17.236)
(5.23466 12.6376 15.9339)
(5.82469 14.062 14.4683)
(6.35495 15.3422 12.8542)
(6.82 16.4649 11.1082)
(7.21507 17.4187 9.24828)
(7.53611 18.1938 7.29341)
(7.77981 18.7821 5.2637)
(7.94368 19.1777 3.17998)
(8.02604 19.3766 1.06363)
(8.02604 19.3766 -1.06363)
(7.94368 19.1777 -3.17998)
(7.77981 18.7821 -5.2637)
(7.53611 18.1938 -7.29341)
(7.21507 17.4187 -9.24828)
(6.82 16.4649 -11.1082)
(6.35495 15.3422 -12.8542)
(5.82469 14.062 -14.4683)
(5.23466 12.6376 -15.9339)
(4.59091 11.0834 -17.236)
(3.90006 9.41557 -18.3613)
(3.16918 7.65108 -19.2981)
(2.40579 5.80808 -20.0369)
(1.61771 3.90549 -20.5701)
(0.824699 4.14604 20.5701)
(1.22646 6.16583 20.0369)
(1.61564 8.12235 19.2981)
(1.98823 9.99552 18.3613)
(2.34043 11.7661 17.236)
(2.66861 13.416 15.9339)
(2.9694 14.9282 14.4683)
(3.23973 16.2872 12.8542)
(3.47681 17.4791 11.1082)
(3.67821 18.4916 9.24828)
(3.84187 19.3144 7.29341)
(3.96611 19.939 5.2637)
(4.04965 20.359 3.17998)
(4.09164 20.5701 1.06363)
(4.09164 20.5701 -1.06363)
(4.04965 20.359 -3.17998)
(3.96611 19.939 -5.2637)
(3.84187 19.3144 -7.29341)
(3.67821 18.4916 -9.24828)
(3.47681 17.4791 -11.1082)
(3.23973 16.2872 -12.8542)
(2.9694 14.9282 -14.4683)
(2.66861 13.416 -15.9339)
(2.34043 11.7661 -17.236)
(1.98823 9.99552 -18.3613)
(1.61564 8.12235 -19.2981)
(1.22646 6.16583 -20.0369)
(0.824699 4.14604 -20.5701)
(2.58846e-16 4.22727 20.5701)
(3.84945e-16 6.28663 20.0369)
(5.07094e-16 8.28147 19.2981)
(6.2404e-16 10.1913 18.3613)
(7.34582e-16 11.9966 17.236)
(8.37586e-16 13.6788 15.9339)
(9.31996e-16 15.2206 14.4683)
(1.01684e-15 16.6063 12.8542)
(1.09125e-15 17.8215 11.1082)
(1.15447e-15 18.8539 9.24828)
(1.20584e-15 19.6928 7.29341)
(1.24483e-15 20.3296 5.2637)
(1.27105e-15 20.7578 3.17998)
(1.28423e-15 20.973 1.06363)
(1.28423e-15 20.973 -1.06363)
(1.27105e-15 20.7578 -3.17998)
(1.24483e-15 20.3296 -5.2637)
(1.20584e-15 19.6928 -7.29341)
(1.15447e-15 18.8539 -9.24828)
(1.09125e-15 17.8215 -11.1082)
(1.01684e-15 16.6063 -12.8542)
(9.31996e-16 15.2206 -14.4683)
(8.37586e-16 13.6788 -15.9339)
(7.34582e-16 11.9966 -17.236)
(6.2404e-16 10.1913 -18.3613)
(5.07094e-16 8.28147 -19.2981)
(3.84945e-16 6.28663 -20.0369)
(2.58846e-16 4.22727 -20.5701)
(-0.824699 4.14604 20.5701)
(-1.22646 6.16583 20.0369)
(-1.61564 8.12235 19.2981)
(-1.98823 9.99552 18.3613)
(-2.34043 11.7661 17.236)
(-2.66861 13.416 15.9339)
(-2.9694 14.9282 14.4683)
(-3.23973 16.2872 12.8542)
(-3.47681 17.4791 11.1082)
(-3.67821 18.4916 9.24828)
(-3.84187 19.3144 7.29341)
(-3.96611 19.939 5.2637)
(-4.04965 20.359 3.17998)
(-4.09164 20.5701 1.06363)
(-4.09164 20.5701 -1.06363)
(-4.04965 20.359 -3.17998)
(-3.96611 19.939 -5.2637)
(-3.84187 19.3144 -7.29341)
(-3.67821 18.4916 -9.24828)
(-3.47681 17.4791 -11.1082)
(-3.23973 16.2872 -12.8542)
(-2.9694 14.9282 -14.4683)
(-2.66861 13.416 -15.9339)
(-2.34043 11.7661 -17.236)
(-1.98823 9.99552 -18.3613)
(-1.61564 8.12235 -19.2981)
(-1.22646 6.16583 -20.0369)
(-0.824699 4.14604 -20.5701)
(-1.61771 3.90549 20.5701)
(-2.40579 5.80808 20.0369)
(-3.16918 7.65108 19.2981)
(-3.90006 9.41557 18.3613)
(-4.59091 11.0834 17.236)
(-5.23466 12.6376 15.9339)
(-5.82469 14.062 14.4683)
(-6.35495 15.3422 12.8542)
(-6.82 16.4649 11.1082)
(-7.21507 17.4187 9.24828)
(-7.53611 18.1938 7.29341)
(-7.77981 18.7821 5.2637)
(-7.94368 19.1777 3.17998)
(-8.02604 19.3766 1.06363)
(-8.02604 19.3766 -1.06363)
(-7.94368 19.1777 -3.17998)
(-7.77981 18.7821 -5.2637)
(-7.53611 18.1938 -7.29341)
(-7.21507 17.4187 -9.24828)
(-6.82 16.4649 -11.1082)
(-6.35495 15.3422 -12.8542)
(-5.82469 14.062 -14.4683)
(-5.23466 12.6376 -15.9339)
(-4.59091 11.0834 -17.236)
(-3.90006 9.41557 -18.3613)
(-3.16918 7.65108 -19.2981)
(-2.40579 5.80808 -20.0369)
(-1.61771 3.90549 -20.5701)
(-2.34854 3.51485 20.5701)
(-3.49266 5.22714 20.0369)
(-4.60094 6.88579 19.2981)
(-5.66201 8.47379 18.3613)
(-6.66497 9.97484 17.236)
(-7.59955 11.3735 15.9339)
(-8.45614 12.6555 14.4683)
(-9.22596 13.8076 12.8542)
(-9.90111 14.8181 11.1082)
(-10.4747 15.6764 9.24828)
(-10.9407 16.374 7.29341)
(-11.2945 16.9035 5.2637)
(-11.5324 17.2595 3.17998)
(-11.652 17.4385 1.06363)
(-11.652 17.4385 -1.06363)
(-11.5324 17.2595 -3.17998)
(-11.2945 16.9035 -5.2637)
(-10.9407 16.374 -7.29341)
(-10.4747 15.6764 -9.24828)
(-9.90111 14.8181 -11.1082)
(-9.22596 13.8076 -12.8542)
(-8.45614 12.6555 -14.4683)
(-7.59955 11.3735 -15.9339)
(-6.66497 9.97484 -17.236)
(-5.66201 8.47379 -18.3613)
(-4.60094 6.88579 -19.2981)
(-3.49266 5.22714 -20.0369)
(-2.34854 3.51485 -20.5701)
(-2.98913 2.98913 20.5701)
(-4.44532 4.44532 20.0369)
(-5.85589 5.85589 19.2981)
(-7.20637 7.20637 18.3613)
(-8.4829 8.4829 17.236)
(-9.67239 9.67239 15.9339)
(-10.7626 10.7626 14.4683)
(-11.7424 11.7424 12.8542)
(-12.6017 12.6017 11.1082)
(-13.3317 13.3317 9.24828)
(-13.9249 13.9249 7.29341)
(-14.3752 14.3752 5.2637)
(-14.678 14.678 3.17998)
(-14.8302 14.8302 1.06363)
(-14.8302 14.8302 -1.06363)
(-14.678 14.678 -3.17998)
(-14.3752 14.3752 -5.2637)
(-13.9249 13.9249 -7.29341)
(-13.3317 13.3317 -9.24828)
(-12.6017 12.6017 -11.1082)
(-11.7424 11.7424 -12.8542)
(-10.7626 10.7626 -14.4683)
(-9.67239 9.67239 -15.9339)
(-8.4829 8.4829 -17.236)
(-7.20637 7.20637 -18.3613)
(-5.85589 5.85589 -19.2981)
(-4.44532 4.44532 -20.0369)
(-2.98913 2.98913 -20.5701)
(-3.51485 2.34854 20.5701)
(-5.22714 3.49266 20.0369)
(-6.88579 4.60094 19.2981)
(-8.47379 5.66201 18.3613)
(-9.97484 6.66497 17.236)
(-11.3735 7.59955 15.9339)
(-12.6555 8.45614 14.4683)
(-13.8076 9.22596 12.8542)
(-14.8181 9.90111 11.1082)
(-15.6764 10.4747 9.24828)
(-16.374 10.9407 7.29341)
(-16.9035 11.2945 5.2637)
(-17.2595 11.5324 3.17998)
(-17.4385 11.652 1.06363)
(-17.4385 11.652 -1.06363)
(-17.2595 11.5324 -3.17998)
(-16.9035 11.2945 -5.2637)
(-16.374 10.9407 -7.29341)
(-15.6764 10.4747 -9.24828)
(-14.8181 9.90111 -11.1082)
(-13.8076 9.22596 -12.8542)
(-12.6555 8.45614 -14.4683)
(-11.3735 7.59955 -15.9339)
(-9.97484 6.66497 -17.236)
(-8.47379 5.66201 -18.3613)
(-6.88579 4.60094 -19.2981)
(-5.22714 3.49266 -20.0369)
(-3.51485 2.34854 -20.5701)
(-3.90549 1.61771 20.5701)
(-5.80808 2.40579 20.0369)
(-7.65108 3.16918 19.2981)
(-9.41557 3.90006 18.3613)
(-11.0834 4.59091 17.236)
(-12.6376 5.23466 15.9339)
(-14.062 5.82469 14.4683)
(-15.3422 6.35495 12.8542)
(-16.4649 6.82 11.1082)
(-17.4187 7.21507 9.24828)
(-18.1938 7.53611 7.29341)
(-18.7821 7.77981 5.2637)
(-19.1777 7.94368 3.17998)
(-19.3766 8.02604 1.06363)
(-19.3766 8.02604 -1.06363)
(-19.1777 7.94368 -3.17998)
(-18.7821 7.77981 -5.2637)
(-18.1938 7.53611 -7.29341)
(-17.4187 7.21507 -9.24828)
(-16.4649 6.82 -11.1082)
(-15.3422 6.35495 -12.8542)
(-14.062 5.82469 -14.4683)
(-12.6376 5.23466 -15.9339)
(-11.0834 4.59091 -17.236)
(-9.41557 3.90006 -18.3613)
(-7.65108 3.16918 -19.2981)
(-5.80808 2.40579 -20.0369)
(-3.90549 1.61771 -20.5701)
(-4.14604 0.824699 20.5701)
(-6.16583 1.22646 20.0369)
(-8.12235 1.61564 19.2981)
(-9.99552 1.98823 18.3613)
(-11.7661 2.34043 17.236)
(-13.416 2.66861 15.9339)
(-14.9282 2.9694 14.4683)
(-16.2872 3.23973 12.8542)
(-17.4791 3.47681 11.1082)
(-18.4916 3.67821 9.24828)
(-19.3144 3.84187 7.29341)
(-19.939 3.96611 5.2637)
(-20.359 4.04965 3.17998)
(-20.5701 4.09164 1.06363)
(-20.5701 4.09164 -1.06363)
(-20.359 4.04965 -3.17998)
(-19.939 3.96611 -5.2637)
(-19.3144 3.84187 -7.29341)
(-18.4916 3.67821 -9.24828)
(-17.4791 3.47681 -11.1082)
(-16.2872 3.23973 -12.8542)
(-14.9282 2.9694 -14.4683)
(-13.416 2.66861 -15.9339)
(-11.7661 2.34043 -17.236)
(-9.99552 1.98823 -18.3613)
(-8.12235 1.61564 -19.2981)
(-6.16583 1.22646 -20.0369)
(-4.14604 0.824699 -20.5701)
(-4.22727 5.17691e-16 20.5701)
(-6.28663 7.6989e-16 20.0369)
(-8.28147 1.01419e-15 19.2981)
(-10.1913 1.24808e-15 18.3613)
(-11.9966 1.46916e-15 17.236)
(-13.6788 1.67517e-15 15.9339)
(-15.2206 1.86399e-15 14.4683)
(-16.6063 2.03368e-15 12.8542)
(-17.8215 2.18251e-15 11.1082)
(-18.8539 2.30894e-15 9.24828)
(-19.6928 2.41167e-15 7.29341)
(-20.3296 2.48966e-15 5.2637)
(-20.7578 2.5421e-15 3.17998)
(-20.973 2.56846e-15 1.06363)
(-20.973 2.56846e-15 -1.06363)
(-20.7578 2.5421e-15 -3.17998)
(-20.3296 2.48966e-15 -5.2637)
(-19.6928 2.41167e-15 -7.29341)
(-18.8539 2.30894e-15 -9.24828)
(-17.8215 2.18251e-15 -11.1082)
(-16.6063 2.03368e-15 -12.8542)
(-15.2206 1.86399e-15 -14.4683)
(-13.6788 1.67517e-15 -15.9339)
(-11.9966 1.46916e-15 -17.236)
(-10.1913 1.24808e-15 -18.3613)
(-8.28147 1.01419e-15 -19.2981)
(-6.28663 7.6989e-16 -20.0369)
(-4.22727 5.17691e-16 -20.5701)
(-4.14604 -0.824699 20.5701)
(-6.16583 -1.22646 20.0369)
(-8.12235 -1.61564 19.2981)
(-9.99552 -1.98823 18.3613)
(-11.7661 -2.34043 17.236)
(-13.416 -2.66861 15.9339)
(-14.9282 -2.9694 14.4683)
(-16.2872 -3.23973 12.8542)
(-17.4791 -3.47681 11.1082)
(-18.4916 -3.67821 9.24828)
(-19.3144 -3.84187 7.29341)
(-19.939 -3.96611 5.2637)
(-20.359 -4.04965 3.17998)
(-20.5701 -4.09164 1.06363)
(-20.5701 -4.09164 -1.06363)
(-20.359 -4.04965 -3.17998)
(-19.939 -3.96611 -5.2637)
(-19.3144 -3.84187 -7.29341)
(-18.4916 -3.67821 -9.24828)
(-17.4791 -3.47681 -11.1082)
(-16.2872 -3.23973 -12.8542)
(-14.9282 -2.9694 -14.4683)
(-13.416 -2.66861 -15.9339)
(-11.7661 -2.34043 -17.236)
(-9.99552 -1.98823 -18.3613)
(-8.12235 -1.61564 -19.2981)
(-6.16583 -1.22646 -20.0369)
(-4.14604 -0.824699 -20.5701)
(-3.90549 -1.61771 20.5701)
(-5.80808 -2.40579 20.0369)
(-7.65108 -3.16918 19.2981)
(-9.41557 -3.90006 18.3613)
(-11.0834 -4.59091 17.236)
(-12.6376 -5.23466 15.9339)
(-14.062 -5.82469 14.4683)
(-15.3422 -6.35495 12.8542)
(-16.4649 -6.82 11.1082)
(-17.4187 -7.21507 9.24828)
(-18.1938 -7.53611 7.29341)
(-18.7821 -7.77981 5.2637)
(-19.1777 -7.94368 3.17998)
(-19.3766 -8.02604 1.06363)
(-19.3766 -8.02604 -1.06363)
(-19.1777 -7.94368 -3.17998)
(-18.7821 -7.77981 -5.2637)
(-18.1938 -7.53611 -7.29341)
(-17.4187 -7.21507 -9.24828)
(-16.4649 -6.82 -11.1082)
(-15.3422 -6.35495 -12.8542)
(-14.062 -5.82469 -14.4683)
(-12.6376 -5.23466 -15.9339)
(-11.0834 -4.59091 -17.236)
(-9.41557 -3.90006 -18.3613)
(-7.65108 -3.16918 -19.2981)
(-5.80808 -2.40579 -20.0369)
(-3.90549 -1.61771 -20.5701)
(-3.51485 -2.34854 20.5701)
(-5.22714 -3.49266 20.0369)
(-6.88579 -4.60094 19.2981)
(-8.47379 -5.66201 18.3613)
(-9.97484 -6.66497 17.236)
(-11.3735 -7.59955 15.9339)
(-12.6555 -8.45614 14.4683)
(-13.8076 -9.22596 12.8542)
(-14.8181 -9.90111 11.1082)
(-15.6764 -10.4747 9.24828)
(-16.374 -10.9407 7.29341)
(-16.9035 -11.2945 5.2637)
(-17.2595 -11.5324 3.17998)
(-17.4385 -11.652 1.06363)
(-17.4385 -11.652 -1.06363)
(-17.2595 -11.5324 -3.17998)
(-16.9035 -11.2945 -5.2637)
(-16.374 -10.9407 -7.29341)
(-15.6764 -10.4747 -9.24828)
(-14.8181 -9.90111 -11.1082)
(-13.8076 -9.22596 -12.8542)
(-12.6555 -8.45614 -14.4683)
(-11.3735 -7.59955 -15.9339)
(-9.97484 -6.66497 -17.236)
(-8.47379 -5.66201 -18.3613)
(-6.88579 -4.60094 -19.2981)
(-5.22714 -3.49266 -20.0369)
(-3.51485 -2.34854 -20.5701)
(-2.98913 -2.98913 20.5701)
(-4.44532 -4.44532 20.0369)
(-5.85589 -5.85589 19.2981)
(-7.20637 -7.20637 18.3613)
(-8.4829 -8.4829 17.236)
(-9.67239 -9.67239 15.9339)
(-10.7626 -10.7626 14.4683)
(-11.7424 -11.7424 12.8542)
(-12.6017 -12.6017 11.1082)
(-13.3317 -13.3317 9.24828)
(-13.9249 -13.9249 7.29341)
(-14.3752 -14.3752 5.2637)
(-14.678 -14.678 3.17998)
(-14.8302 -14.8302 1.06363)
(-14.8302 -14.8302 -1.06363)
(-14.678 -14.678 -3.17998)
(-14.3752 -14.3752 -5.2637)
(-13.9249 -13.9249 -7.29341)
(-13.3317 -13.3317 -9.24828)
(-12.6017 -12.6017 -11.1082)
(-11.7424 -11.7424 -12.8542)
(-10.7626 -10.7626 -14.4683)
(-9.67239 -9.67239 -15.9339)
(-8.4829 -8.4829 -17.236)
(-7.20637 -7.20637 -18.3613)
(-5.85589 -5.85589 -19.2981)
(-4.44532 -4.44532 -20.0369)
(-2.98913 -2.98913 -20.5701)
(-2.34854 -3.51485 20.5701)
(-3.49266 -5.22714 20.0369)
(-4.60094 -6.88579 19.2981)
(-5.66201 -8.47379 18.3613)
(-6.66497 -9.97484 17.236)
(-7.59955 -11.3735 15.9339)
(-8.45614 -12.6555 14.4683)
(-9.22596 -13.8076 12.8542)
(-9.90111 -14.8181 11.1082)
(-10.4747 -15.6764 9.24828)
(-10.9407 -16.374 7.29341)
(-11.2945 -16.9035 5.2637)
(-11.5324 -17.2595 3.17998)
(-11.652 -17.4385 1.06363)
(-11.652 -17.4385 -1.06363)
(-11.5324 -17.2595 -3.17998)
(-11.2945 -16.9035 -5.2637)
(-10.9407 -16.374 -7.29341)
(-10.4747 -15.6764 -9.24828)
(-9.90111 -14.8181 -11.1082)
(-9.22596 -13.8076 -12.8542)
(-8.45614 -12.6555 -14.4683)
(-7.59955 -11.3735 -15.9339)
(-6.66497 -9.97484 -17.236)
(-5.66201 -8.47379 -18.3613)
(-4.60094 -6.88579 -19.2981)
(-3.49266 -5.22714 -20.0369)
(-2.34854 -3.51485 -20.5701)
(-1.61771 -3.90549 20.5701)
(-2.40579 -5.80808 20.0369)
(-3.16918 -7.65108 19.2981)
(-3.90006 -9.41557 18.3613)
(-4.59091 -11.0834 17.236)
(-5.23466 -12.6376 15.9339)
(-5.82469 -14.062 14.4683)
(-6.35495 -15.3422 12.8542)
(-6.82 -16.4649 11.1082)
(-7.21507 -17.4187 9.24828)
(-7.53611 -18.1938 7.29341)
(-7.77981 -18.7821 5.2637)
(-7.94368 -19.1777 3.17998)
(-8.02604 -19.3766 1.06363)
(-8.02604 -19.3766 -1.06363)
(-7.94368 -19.1777 -3.17998)
(-7.77981 -18.7821 -5.2637)
(-7.53611 -18.1938 -7.29341)
(-7.21507 -17.4187 -9.24828)
(-6.82 -16.4649 -11.1082)
(-6.35495 -15.3422 -12.8542)
(-5.82469 -14.062 -14.4683)
(-5.23466 -12.6376 -15.9339)
(-4.59091 -11.0834 -17.236)
(-3.90006 -9.41557 -18.3613)
(-3.16918 -7.65108 -19.2981)
(-2.40579 -5.80808 -20.0369)
(-1.61771 -3.90549 -20.5701)
(-0.824699 -4.14604 20.5701)
(-1.22646 -6.16583 20.0369)
(-1.61564 -8.12235 19.2981)
(-1.98823 -9.99552 18.3613)
(-2.34043 -11.7661 17.236)
(-2.66861 -13.416 15.9339)
(-2.9694 -14.9282 14.4683)
(-3.23973 -16.2872 12.8542)
(-3.47681 -17.4791 11.1082)
(-3.67821 -18.4916 9.24828)
(-3.84187 -19.3144 7.29341)
(-3.96611 -19.939 5.2637)
(-4.04965 -20.359 3.17998)
(-4.09164 -20.5701 1.06363)
(-4.09164 -20.5701 -1.06363)
(-4.04965 -20.359 -3.17998)
(-3.96611 -19.939 -5.2637)
(-3.84187 -19.3144 -7.29341)
(-3.67821 -18.4916 -9.24828)
(-3.47681 -17.4791 -11.1082)
(-3.23973 -16.2872 -12.8542)
(-2.9694 -14.9282 -14.4683)
(-2.66861 -13.416 -15.9339)
(-2.34043 -11.7661 -17.236)
(-1.98823 -9.99552 -18.3613)
(-1.61564 -8.12235 -19.2981)
(-1.22646 -6.16583 -20.0369)
(-0.824699 -4.14604 -20.5701)
(-7.76537e-16 -4.22727 20.5701)
(-1.15483e-15 -6.28663 20.0369)
(-1.52128e-15 -8.28147 19.2981)
(-1.87212e-15 -10.1913 18.3613)
(-2.20375e-15 -11.9966 17.236)
(-2.51276e-15 -13.6788 15.9339)
(-2.79599e-15 -15.2206 14.4683)
(-3.05053e-15 -16.6063 12.8542)
(-3.27376e-15 -17.8215 11.1082)
(-3.4634e-15 -18.8539 9.24828)
(-3.61751e-15 -19.6928 7.29341)
(-3.73449e-15 -20.3296 5.2637)
(-3.81315e-15 -20.7578 3.17998)
(-3.85269e-15 -20.973 1.06363)
(-3.85269e-15 -20.973 -1.06363)
(-3.81315e-15 -20.7578 -3.17998)
(-3.73449e-15 -20.3296 -5.2637)
(-3.61751e-15 -19.6928 -7.29341)
(-3.4634e-15 -18.8539 -9.24828)
(-3.27376e-15 -17.8215 -11.1082)
(-3.05053e-15 -16.6063 -12.8542)
(-2.79599e-15 -15.2206 -14.4683)
(-2.51276e-15 -13.6788 -15.9339)
(-2.20375e-15 -11.9966 -17.236)
(-1.87212e-15 -10.1913 -18.3613)
(-1.52128e-15 -8.28147 -19.2981)
(-1.15483e-15 -6.28663 -20.0369)
(-7.76537e-16 -4.22727 -20.5701)
(0.824699 -4.14604 20.5701)
(1.22646 -6.16583 20.0369)
(1.61564 -8.12235 19.2981)
(1.98823 -9.99552 18.3613)
(2.34043 -11.7661 17.236)
(2.66861 -13.416 15.9339)
(2.9694 -14.9282 14.4683)
(3.23973 -16.2872 12.8542)
(3.47681 -17.4791 11.1082)
(3.67821 -18.4916 9.24828)
(3.84187 -19.3144 7.29341)
(3.96611 -19.939 5.2637)
(4.04965 -20.359 3.17998)
(4.09164 -20.5701 1.06363)
(4.09164 -20.5701 -1.06363)
(4.04965 -20.359 -3.17998)
(3.96611 -19.939 -5.2637)
(3.84187 -19.3144 -7.29341)
(3.67821 -18.4916 -9.24828)
(3.47681 -17.4791 -11.1082)
(3.23973 -16.2872 -12.8542)
(2.9694 -14.9282 -14.4683)
(2.66861 -13.416 -15.9339)
(2.34043 -11.7661 -17.236)
(1.98823 -9.99552 -18.3613)
(1.61564 -8.12235 -19.2981)
(1.22646 -6.16583 -20.0369)
(0.824699 -4.14604 -20.5701)
(1.61771 -3.90549 20.5701)
(2.40579 -5.80808 20.0369)
(3.16918 -7.65108 19.2981)
(3.90006 -9.41557 18.3613)
(4.59091 -11.0834 17.236)
(5.23466 -12.6376 15.9339)
(5.82469 -14.062 14.4683)
(6.35495 -15.3422 12.8542)
(6.82 -16.4649 11.1082)
(7.21507 -17.4187 9.24828)
(7.53611 -18.1938 7.29341)
(7.77981 -18.7821 5.2637)
(7.94368 -19.1777 3.17998)
(8.02604 -19.3766 1.06363)
(8.02604 -19.3766 -1.06363)
(7.94368 -19.1777 -3.17998)
(7.77981 -18.7821 -5.2637)
(7.53611 -18.1938 -7.29341)
(7.21507 -17.4187 -9.24828)
(6.82 -16.4649 -11.1082)
(6.35495 -15.3422 -12.8542)
(5.82469 -14.062 -14.4683)
(5.23466 -12.6376 -15.9339)
(4.59091 -11.0834 -17.236)
(3.90006 -9.41557 -18.3613)
(3.16918 -7.65108 -19.2981)
(2.40579 -5.80808 -20.0369)
(1.61771 -3.90549 -20.5701)
(2.34854 -3.51485 20.5701)
(3.49266 -5.22714 20.0369)
(4.60094 -6.88579 19.2981)
(5.66201 -8.47379 18.3613)
(6.66497 -9.97484 17.236)
(7.59955 -11.3735 15.9339)
(8.45614 -12.6555 14.4683)
(9.22596 -13.8076 12.8542)
(9.90111 -14.8181 11.1082)
(10.4747 -15.6764 9.24828)
(10.9407 -16.374 7.29341)
(11.2945 -16.9035 5.2637)
(11.5324 -17.2595 3.17998)
(11.652 -17.4385 1.06363)
(11.652 -17.4385 -1.06363)
(11.5324 -17.2595 -3.17998)
(11.2945 -16.9035 -5.2637)
(10.9407 -16.374 -7.29341)
(10.4747 -15.6764 -9.24828)
(9.90111 -14.8181 -11.1082)
(9.22596 -13.8076 -12.8542)
(8.45614 -12.6555 -14.4683)
(7.59955 -11.3735 -15.9339)
(6.66497 -9.97484 -17.236)
(5.66201 -8.47379 -18.3613)
(4.60094 -6.88579 -19.2981)
(3.49266 -5.22714 -20.0369)
(2.34854 -3.51485 -20.5701)
(2.98913 -2.98913 20.5701)
(4.44532 -4.44532 20.0369)
(5.85589 -5.85589 19.2981)
(7.20637 -7.20637 18.3613)
(8.4829 -8.4829 17.236)
(9.67239 -9.67239 15.9339)
(10.7626 -10.7626 14.4683)
(11.7424 -11.7424 12.8542)
(12.6017 -12.6017 11.1082)
(13.3317 -13.3317 9.24828)
(13.9249 -13.9249 7.29341)
(14.3752 -14.3752 5.2637)
(14.678 -14.678 3.17998)
(14.8302 -14.8302 1.06363)
(14.8302 -14.8302 -1.06363)
(14.678 -14.678 -3.17998)
(14.3752 -14.3752 -5.2637)
(13.9249 -13.9249 -7.29341)
(13.3317 -13.3317 -9.24828)
(12.6017 -12.6017 -11.1082)
(11.7424 -11.7424 -12.8542)
(10.7626 -10.7626 -14.4683)
(9.67239 -9.67239 -15.9339)
(8.4829 -8.4829 -17.236)
(7.20637 -7.20637 -18.3613)
(5.85589 -5.85589 -19.2981)
(4.44532 -4.44532 -20.0369)
(2.98913 -2.98913 -20.5701)
(3.51485 -2.34854 20.5701)
(5.22714 -3.49266 20.0369)
(6.88579 -4.60094 19.2981)
(8.47379 -5.66201 18.3613)
(9.97484 -6.66497 17.236)
(11.3735 -7.59955 15.9339)
(12.6555 -8.45614 14.4683)
(13.8076 -9.22596 12.8542)
(14.8181 -9.90111 11.1082)
(15.6764 -10.4747 9.24828)
(16.374 -10.9407 7.29341)
(16.9035 -11.2945 5.2637)
(17.2595 -11.5324 3.17998)
(17.4385 -11.652 1.06363)
(17.4385 -11.652 -1.06363)
(17.2595 -11.5324 -3.17998)
(16.9035 -11.2945 -5.2637)
(16.374 -10.9407 -7.29341)
(15.6764 -10.4747 -9.24828)
(14.8181 -9.90111 -11.1082)
(13.8076 -9.22596 -12.8542)
(12.6555 -8.45614 -14.4683)
(11.3735 -7.59955 -15.9339)
(9.97484 -6.66497 -17.236)
(8.47379 -5.66201 -18.3613)
(6.88579 -4.60094 -19.2981)
(5.22714 -3.49266 -20.0369)
(3.51485 -2.34854 -20.5701)
(3.90549 -1.61771 20.5701)
(5.80808 -2.40579 20.0369)
(7.65108 -3.16918 19.2981)
(9.41557 -3.90006 18.3613)
(11.0834 -4.59091 17.236)
(12.6376 -5.23466 15.9339)
(14.062 -5.82469 14.4683)
(15.3422 -6.35495 12.8542)
(16.4649 -6.82 11.1082)
(17.4187 -7.21507 9.24828)
(18.1938 -7.53611 7.29341)
(18.7821 -7.77981 5.2637)
(19.1777 -7.94368 3.17998)
(19.3766 -8.02604 1.06363)
(19.3766 -8.02604 -1.06363)
(19.1777 -7.94368 -3.17998)
(18.7821 -7.77981 -5.2637)
(18.1938 -7.53611 -7.29341)
(17.4187 -7.21507 -9.24828)
(16.4649 -6.82 -11.1082)
(15.3422 -6.35495 -12.8542)
(14.062 -5.82469 -14.4683)
(12.6376 -5.23466 -15.9339)
(11.0834 -4.59091 -17.236)
(9.41557 -3.90006 -18.3613)
(7.65108 -3.16918 -19.2981)
(5.80808 -2.40579 -20.0369)
(3.90549 -1.61771 -20.5701)
(4.14604 -0.824699 20.5701)
(6.16583 -1.22646 20.0369)
(8.12235 -1.61564 19.2981)
(9.99552 -1.98823 18.3613)
(11.7661 -2.34043 17.236)
(13.416 -2.66861 15.9339)
(14.9282 -2.9694 14.4683)
(16.2872 -3.23973 12.8542)
(17.4791 -3.47681 11.1082)
(18.4916 -3.67821 9.24828)
(19.3144 -3.84187 7.29341)
(19.939 -3.96611 5.2637)
(20.359 -4.04965 3.17998)
(20.5701 -4.09164 1.06363)
(20.5701 -4.09164 -1.06363)
(20.359 -4.04965 -3.17998)
(19.939 -3.96611 -5.2637)
(19.3144 -3.84187 -7.29341)
(18.4916 -3.67821 -9.24828)
(17.4791 -3.47681 -11.1082)
(16.2872 -3.23973 -12.8542)
(14.9282 -2.9694 -14.4683)
(13.416 -2.66861 -15.9339)
(11.7661 -2.34043 -17.236)
(9.99552 -1.98823 -18.3613)
(8.12235 -1.61564 -19.2981)
(6.16583 -1.22646 -20.0369)
(4.14604 -0.824699 -20.5701)
)

// edges

2880
(
(3 0)
(0 2)
(2 3)
(4 0)
(3 4)
(5 0)
(4 5)
(6 0)
(5 6)
(7 0)
(6 7)
(8 0)
(7 8)
(9 0)
(8 9)
(10 0)
(9 10)
(11 0)
(10 11)
(12 0)
(11 12)
(13 0)
(12 13)
(14 0)
(13 14)
(15 0)
(14 15)
(16 0)
(15 16)
(17 0)
(16 17)
(18 0)
(17 18)
(19 0)
(18 19)
(20 0)
(19 20)
(21 0)
(20 21)
(22 0)
(21 22)
(23 0)
(22 23)
(24 0)
(23 24)
(25 0)
(24 25)
(26 0)
(25 26)
(27 0)
(26 27)
(28 0)
(27 28)
(29 0)
(28 29)
(30 0)
(29 30)
(31 0)
(30 31)
(32 0)
(31 32)
(33 0)
(32 33)
(33 2)
(1 35)
(34 1)
(35 34)
(1 36)
(36 35)
(1 37)
(37 36)
(1 38)
(38 37)
(1 39)
(39 38)
(1 40)
(40 39)
(1 41)
(41 40)
(1 42)
(42 41)
(1 43)
(43 42)
(1 44)
(44 43)
(1 45)
(45 44)
(1 46)
(46 45)
(1 47)
(47 46)
(1 48)
(48 47)
(1 49)
(49 48)
(1 50)
(50 49)
(1 51)
(51 50)
(1 52)
(52 51)
(1 53)
(53 52)
(1 54)
(54 53)
(1 55)
(55 54)
(1 56)
(56 55)
(1 57)
(57 56)
(1 58)
(58 57)
(1 59)
(59 58)
(1 60)
(60 59)
(1 61)
(61 60)
(1 62)
(62 61)
(1 63)
(63 62)
(1 64)
(64 63)
(1 65)
(65 64)
(34 65)
(66 67)
(2 66)
(67 3)
(68 69)
(66 68)
(69 67)
(70 71)
(68 70)
(71 69)
(72 73)
(70 72)
(73 71)
(74 75)
(72 74)
(75 73)
(76 77)
(74 76)
(77 75)
(78 79)
(76 78)
(79 77)
(80 81)
(78 80)
(81 79)
(82 83)
(80 82)
(83 81)
(84 85)
(82 84)
(85 83)
(86 87)
(84 86)
(87 85)
(88 89)
(86 88)
(89 87)
(90 91)
(88 90)
(91 89)
(92 93)
(90 92)
(93 91)
(94 95)
(92 94)
(95 93)
(96 97)
(94 96)
(97 95)
(98 99)
(96 98)
(99 97)
(100 101)
(98 100)
(101 99)
(102 103)
(100 102)
(103 101)
(104 105)
(102 104)
(105 103)
(106 107)
(104 106)
(107 105)
(108 109)
(106 108)
(109 107)
(110 111)
(108 110)
(111 109)
(112 113)
(110 112)
(113 111)
(114 115)
(112 114)
(115 113)
(116 117)
(114 116)
(117 115)
(118 119)
(116 118)
(119 117)
(120 121)
(118 120)
(121 119)
(120 34)
(35 121)
(67 122)
(122 4)
(69 123)
(123 122)
(71 124)
(124 123)
(73 125)
(125 124)
(75 126)
(126 125)
(77 127)
(127 126)
(79 128)
(128 127)
(81 129)
(129 128)
(83 130)
(130 129)
(85 131)
(131 130)
(87 132)
(132 131)
(89 133)
(133 132)
(91 134)
(134 133)
(93 135)
(135 134)
(95 136)
(136 135)
(97 137)
(137 136)
(99 138)
(138 137)
(101 139)
(139 138)
(103 140)
(140 139)
(105 141)
(141 140)
(107 142)
(142 141)
(109 143)
(143 142)
(111 144)
(144 143)
(113 145)
(145 144)
(115 146)
(146 145)
(117 147)
(147 146)
(119 148)
(148 147)
(121 149)
(149 148)
(36 149)
(122 150)
(150 5)
(123 151)
(151 150)
(124 152)
(152 151)
(125 153)
(153 152)
(126 154)
(154 153)
(127 155)
(155 154)
(128 156)
(156 155)
(129 157)
(157 156)
(130 158)
(158 157)
(131 159)
(159 158)
(132 160)
(160 159)
(133 161)
(161 160)
(134 162)
(162 161)
(135 163)
(163 162)
(136 164)
(164 163)
(137 165)
(165 164)
(138 166)
(166 165)
(139 167)
(167 166)
(140 168)
(168 167)
(141 169)
(169 168)
(142 170)
(170 169)
(143 171)
(171 170)
(144 172)
(172 171)
(145 173)
(173 172)
(146 174)
(174 173)
(147 175)
(175 174)
(148 176)
(176 175)
(149 177)
(177 176)
(37 177)
(150 178)
(178 6)
(151 179)
(179 178)
(152 180)
(180 179)
(153 181)
(181 180)
(154 182)
(182 181)
(155 183)
(183 182)
(156 184)
(184 183)
(157 185)
(185 184)
(158 186)
(186 185)
(159 187)
(187 186)
(160 188)