/*--------------------------------*- C++ -*----------------------------------*\
  =========                 |
  \\      /  F ield         | OpenFOAM: The Open Source CFD Toolbox
   \\    /   O peration     | Website:  https://openfoam.org
    \\  /    A nd           | Version:  7
     \\/     M anipulation  |
\*---------------------------------------------------------------------------*/
FoamFile
{
    version     2.0;
    format      ascii;
    class       featureEdgeMesh;
    location    "constant/triSurface";
    object      sphere.eMesh;
}
// * * * * * * * * * * * * * * * * * * * * * * * * * * * * * * * * * * * * * //


// points:

54089
(
(-3.0937 -12.2168 16.7982)
(-6.69488 -11.9372 15.9274)
(-0.896198 -7.71291 19.5117)
(2.91931 -13.3714 15.9274)
(1.86848 -12.4631 16.7982)
(1.0407 -12.5593 16.7982)
(-0.624874 -12.5869 16.7982)
(-2.27953 -12.3945 16.7982)
(-3.75278 -0.248567 20.6605)
(2.24331 4.60239 20.3663)
(5.62502 5.35269 19.5117)
(5.96648 4.96923 19.5117)
(7.31271 5.31299 18.9551)
(6.82894 3.69564 19.5117)
(7.05826 3.23623 19.5117)
(7.25671 2.76267 19.5117)
(7.42343 2.27703 19.5117)
(4.0494 5.02887 19.9828)
(5.10752 0.35732 20.3663)
(5.62429 -5.35346 19.5117)
(5.96648 -4.96923 19.5117)
(6.28186 -4.56404 19.5117)
(-2.3586 -14.5201 14.9868)
(-2.66083 -14.4678 14.9868)
(2.75053 -14.451 14.9868)
(2.91287 -15.3969 13.9804)
(2.69 -17.9203 10.6126)
(2.4721 -18.6203 9.39015)
(1.36758 -16.5042 12.9128)
(0.273815 -16.5585 12.9128)
(-3.50255 -19.0445 8.12652)
(-2.53835 -15.463 13.9804)
(2.59357 5.91274 19.9828)
(2.15398 7.46006 19.5117)
(1.65623 7.58611 19.5117)
(0.128383 7.76374 19.5117)
(-1.4045 7.63672 19.5117)
(-1.90615 7.5272 19.5117)
(-2.39946 7.38477 19.5117)
(-2.39666 5.99526 19.9828)
(-7.69697 -1.02412 19.5117)
(-5.79892 -5.16378 19.5117)
(-6.12752 -4.76924 19.5117)
(10.7658 -3.93721 17.5954)
(12.0483 -3.69565 16.7982)
(12.4305 -2.07429 16.7982)
(7.76376 -8.43369 17.5954)
(12.0483 3.69565 16.7982)
(5.21168 10.2099 17.5954)
(5.06397 11.5402 16.7982)
(0.208367 12.6007 16.7982)
(-1.45392 12.5182 16.7982)
(-4.4345 7.87648 18.9551)
(4.73963 9.11496 18.3154)
(-5.79892 5.16378 19.5117)
(-9.41174 8.3809 16.7982)
(-7.57372 10.0727 16.7982)
(-6.89285 10.5503 16.7982)
(-5.62178 9.98992 17.5954)
(-10.8791 6.36125 16.7982)
(-10.1838 1.355 18.3154)
(-8.33658 -3.49357 18.9551)
(-9.65214 -3.5189 18.3154)
(-12.3551 -2.48415 16.7982)
(-6.89285 -10.5503 16.7982)
(-5.89873 -6.84899 18.9551)
(-3.80804 -6.7669 19.5117)
(-3.64598 -6.85558 19.5117)
(7.52063 -12.6427 14.9868)
(6.54601 -10.7689 16.7982)
(11.3035 -9.41422 14.9868)
(13.398 -9.73419 12.9128)
(14.7035 -5.41805 13.9804)
(15.8327 -4.85645 12.9128)
(8.59455 -14.156 12.9128)
(13.8062 -5.07785 14.9868)
(12.7909 -4.86942 15.9274)
(12.5955 -0.416678 16.7982)
(16.5517 -0.547556 12.9128)
(17.6377 -4.1574 10.6126)
(13.7541 5.21745 14.9868)
(11.3035 9.41422 14.9868)
(13.398 9.73419 12.9128)
(16.28 6.08223 11.7885)
(2.32329 15.4968 13.9804)
(7.64018 14.6931 12.9128)
(8.59455 14.156 12.9128)
(-2.66083 14.4678 14.9868)
(-7.68492 13.6561 13.9804)
(-5.12682 15.7472 12.9128)
(-11.7027 10.4209 13.9804)
(-14.3704 11.0392 10.6126)
(-13.8902 4.84347 14.9868)
(-15.6253 5.48738 12.9128)
(-17.5975 6.56921 9.39015)
(-16.7129 9.7795 8.12652)
(-14.2962 8.35932 12.9128)
(-13.7125 9.28589 12.9128)
(-14.8209 -5.08803 13.9804)
(-12.3658 -9.62469 13.9804)
(-10.2213 -9.1018 15.9274)
(-7.68492 -13.6561 13.9804)
(-9.95438 -13.2352 12.9128)
(-11.6132 -11.8065 12.9128)
(-12.368 -11.0133 12.9128)
(-13.7125 -9.28589 12.9128)
(-15.6431 -9.14688 10.6126)
(3.53241 -16.1797 12.9128)
(5.63553 -15.5724 12.9128)
(8.01766 -15.4191 11.7885)
(8.36714 -16.8171 9.39015)
(8.51409 -17.3917 8.12652)
(7.42945 -18.4172 6.82727)
(4.13031 -18.9182 8.12652)
(12.2731 -13.3321 10.6126)
(12.7218 -13.8196 9.39015)
(15.2844 -8.2715 11.7885)
(16.3669 -9.21682 9.39015)
(16.7867 -9.65222 8.12652)
(14.8924 -12.3765 8.12652)
(12.9303 -13.6247 9.39015)
(18.079 1.23363 10.6126)
(18.0429 1.68086 10.6126)
(18.7393 1.29044 9.39015)
(19.0998 3.18719 8.12652)
(19.2687 -1.91791 8.12652)
(19.0464 -3.49195 8.12652)
(19.4324 -4.09501 6.82727)
(16.9366 6.44399 10.6126)
(13.3541 11.122 11.7885)
(15.6657 11.3818 8.12652)
(14.9801 12.2701 8.12652)
(14.4334 12.0209 9.39015)
(16.8028 10.5856 6.82727)
(17.6019 8.07051 8.12652)
(18.0972 6.88858 8.12652)
(17.3644 7.1626 9.39015)
(10.4074 14.8343 10.6126)
(5.02315 17.4109 10.6126)
(4.13031 18.9182 8.12652)
(8.93335 17.1801 8.12652)
(11.1212 15.8517 8.12652)
(10.3442 15.6788 9.39015)
(0.299612 18.1186 10.6126)
(-0.821866 16.5404 12.9128)
(0.273815 16.5585 12.9128)
(-5.8081 17.8631 9.39015)
(-2.23623 19.2343 8.12652)
(-0.960134 19.3401 8.12652)
(-0.327969 18.7808 9.39015)
(-10.4771 14.7852 10.6126)
(-9.0579 13.8641 12.9128)
(-11.613 11.8067 12.9128)
(-14.8229 11.5372 9.39015)
(-14.4614 12.8775 8.12652)
(-11.6393 15.4754 8.12652)
(-10.5909 16.2109 8.12652)
(-16.4374 5.64296 11.7885)
(-15.9846 4.33032 12.9128)
(-16.5246 1.09451 12.9128)
(-18.0814 1.19763 10.6126)
(-18.754 1.05406 9.39015)
(-18.9132 6.05619 6.82727)
(-18.2551 -4.42451 9.39015)
(-18.415 -3.70298 9.39015)
(-18.9848 -3.81282 8.12652)
(-16.7744 -4.54427 11.7885)
(-15.2752 -6.3976 12.9128)
(-17.3254 -8.64808 8.12652)
(-16.716 -9.77422 8.12652)
(-12.0822 -13.5053 10.6126)
(-7.1502 -14.9377 12.9128)
(-7.28165 -15.78 11.7885)
(-7.82384 -16.345 10.6126)
(-7.5658 -16.4661 10.6126)
(-8.10992 -16.9427 9.39015)
(-9.4965 -16.8753 8.12652)
(-13.1718 -13.3914 9.39015)
(2.69708 -20.0872 5.49808)
(2.37942 -20.1273 5.49808)
(7.60672 -18.7859 5.49808)
(7.08357 -19.5738 2.77333)
(2.48779 -20.8058 1.38971)
(2.42602 -20.4435 4.14479)
(12.1563 -16.6146 4.14479)
(13.0553 -16.2132 2.77333)
(11.1212 -15.8517 8.12652)
(13.1148 -14.2465 8.12652)
(15.2598 -12.7093 6.82727)
(15.5736 -12.9706 5.49808)
(15.819 -13.175 4.14479)
(14.0983 -15.3149 2.77333)
(18.6517 -8.71415 4.14479)
(18.7136 -8.58025 4.14479)
(18.8474 -4.44254 8.12652)
(19.9376 -3.64198 5.49808)
(20.3061 -3.38849 4.14479)
(20.2604 -4.77755 2.77333)
(19.8999 -6.1075 2.77333)
(20.0324 -6.14591 1.38971)
(20.0324 -6.14591 -1.38971)
(19.8999 -6.1075 -2.77333)
(20.8047 0.688249 -2.77333)
(20.217 1.43028 5.49808)
(19.8106 1.38909 6.82727)
(19.9009 6.10431 2.77333)
(20.8047 0.688249 2.77333)
(17.1482 10.8032 5.49808)
(17.305 11.1516 4.14479)
(13.9431 15.1463 4.14479)
(13.3333 15.9854 2.77333)
(14.1549 15.2627 2.77333)
(8.36172 19.0628 2.77333)
(5.50895 19.0798 6.82727)
(4.98859 19.9733 4.14479)
(5.77444 19.9991 2.77333)
(-0.144026 20.5864 4.14479)
(-4.97537 19.6473 5.49808)
(-5.05379 19.957 4.14479)
(-5.11004 20.1791 2.77333)
(-6.43252 19.7973 2.77333)
(-2.40394 20.6768 2.77333)
(-10.0963 17.9412 4.14479)
(-11.3853 17.4265 2.77333)
(-9.49442 16.8765 8.12652)
(-14.1357 14.9667 4.14479)
(-14.2117 15.2098 2.77333)
(-13.6743 15.8771 1.38971)
(-17.4105 10.9861 4.14479)
(-17.541 11.2081 2.77333)
(-17.9702 10.5063 2.77333)
(-16.4436 11.1354 6.82727)
(-16.0335 10.8576 8.12652)
(-19.3226 6.11634 5.49808)
(-19.4715 6.68456 4.14479)
(-20.2368 1.11449 5.49808)
(-20.2298 1.23465 5.49808)
(-20.2232 1.33949 5.49808)
(-19.3215 -1.27977 8.12652)
(-20.183 -4.05803 4.14479)
(-20.4354 -3.96289 2.77333)
(-20.9082 -1.38486 1.38971)
(-20.5472 1.27807 4.14479)
(-17.9696 -10.5072 2.77333)
(-15.2808 -11.8935 8.12652)
(-15.6717 -12.1978 6.82727)
(-15.7688 -13.235 4.14479)
(-15.9549 -13.3697 2.77333)
(-15.5459 -13.8432 2.77333)
(-16.4268 -12.7855 2.77333)
(-11.9869 -16.7372 4.14479)
(-7.37169 -18.4404 6.82727)
(-7.52324 -18.8195 5.49808)
(-7.43047 -19.1992 4.14479)
(-6.43252 -19.7973 2.77333)
(-10.2087 -18.1409 2.77333)
(-7.52324 -18.8195 -5.49808)
(-7.43047 -19.1992 -4.14479)
(-1.03214 -20.7905 -2.77333)
(-2.37747 -20.4492 -4.14479)
(-2.63561 -19.6835 -6.82727)
(-3.50255 -19.0445 -8.12652)
(-7.37169 -18.4404 -6.82727)
(-15.6717 -12.1978 -6.82727)
(-15.2808 -11.8935 -8.12652)
(-15.7688 -13.235 -4.14479)
(-15.5459 -13.8432 -2.77333)
(-15.9549 -13.3697 -2.77333)
(-13.5843 -15.7726 -2.77333)
(-12.5121 -16.636 -2.77333)
(-11.9869 -16.7372 -4.14479)
(-13.5787 -13.8051 -8.12652)
(-20.183 -4.05803 -4.14479)
(-18.7877 -8.96267 -2.77333)
(-17.9696 -10.5072 -2.77333)
(-18.0886 -10.5768 -1.38971)
(-18.0886 -10.5768 1.38971)
(-18.7877 -8.96267 2.77333)
(-17.3254 -8.64808 -8.12652)
(-18.2551 -4.42451 -9.39015)
(-18.9848 -3.81282 -8.12652)
(-19.3226 6.11634 -5.49808)
(-19.4715 6.68456 -4.14479)
(-20.5084 3.56546 -2.77333)
(-20.5472 1.27807 -4.14479)
(-20.2232 1.33949 -5.49808)
(-20.2298 1.23465 -5.49808)
(-18.9132 6.05619 -6.82727)
(-11.6393 15.4754 -8.12652)
(-14.1357 14.9667 -4.14479)
(-16.4268 12.7855 -2.77333)
(-17.2359 11.6719 -2.77333)
(-17.4105 10.9861 -4.14479)
(-17.541 11.2081 -2.77333)
(-16.4436 11.1354 -6.82727)
(-16.0335 10.8576 -8.12652)
(-16.7129 9.7795 -8.12652)
(-5.19402 19.5906 -5.49808)
(-5.05379 19.957 -4.14479)
(-5.11004 20.1791 -2.77333)
(-6.43252 19.7973 -2.77333)
(-9.04697 18.9003 -1.38971)
(-10.0267 18.2421 -2.77333)
(-10.0963 17.9412 -4.14479)
(-9.49442 16.8765 -8.12652)
(-5.08805 19.1964 -6.82727)
(5.50895 19.0798 -6.82727)
(4.13031 18.9182 -8.12652)
(0.346452 20.9511 -1.38971)
(-0.144026 20.5864 -4.14479)
(0.328351 19.8565 -6.82727)
(1.59906 19.2977 -8.12652)
(13.9431 15.1463 -4.14479)
(9.66693 18.5908 -1.38971)
(8.93335 17.1801 -8.12652)
(11.1212 15.8517 -8.12652)
(14.4334 12.0209 -9.39015)
(19.454 7.40623 -2.77333)
(19.9009 6.10431 -2.77333)
(18.9219 8.67576 -2.77333)
(18.3072 9.90735 -2.77333)
(17.6124 11.0956 -2.77333)
(16.9521 12.3164 -1.38971)
(17.305 11.1516 -4.14479)
(17.1482 10.8032 -5.49808)
(16.8028 10.5856 -6.82727)
(17.6019 8.07051 -8.12652)
(18.0972 6.88858 -8.12652)
(19.9376 -3.64198 -5.49808)
(20.3061 -3.38849 -4.14479)
(20.217 1.43028 -5.49808)
(19.8106 1.38909 -6.82727)
(19.2687 -1.91791 -8.12652)
(15.7127 -12.8017 -5.49808)
(15.819 -13.175 -4.14479)
(17.6124 -11.0956 -2.77333)
(18.8106 -8.91454 -2.77333)
(18.6517 -8.71415 -4.14479)
(18.7136 -8.58025 -4.14479)
(16.5197 -8.94002 -9.39015)
(16.3669 -9.21682 -9.39015)
(16.7867 -9.65222 -8.12652)
(14.8924 -12.3765 -8.12652)
(15.3349 -12.6186 -6.82727)
(7.60672 -18.7859 -5.49808)
(11.9553 -17.0405 -2.77333)
(11.9553 -17.0405 2.77333)
(11.8237 -16.853 -4.14479)
(12.1563 -16.6146 -4.14479)
(11.1212 -15.8517 -8.12652)
(8.51409 -17.3917 -8.12652)
(7.42945 -18.4172 -6.82727)
(-7.82384 -16.345 -10.6126)
(-7.5658 -16.4661 -10.6126)
(-8.10992 -16.9427 -9.39015)
(-3.14353 -17.0924 -11.7885)
(-7.1502 -14.9377 -12.9128)
(-7.68492 -13.6561 -13.9804)
(-7.28165 -15.78 -11.7885)
(-15.6431 -9.14688 -10.6126)
(-13.7125 -9.28589 -12.9128)
(-13.0688 -10.1719 -12.9128)
(-11.6132 -11.8065 -12.9128)
(-16.716 -9.77422 -8.12652)
(-12.2579 -14.2326 -9.39015)
(-12.0822 -13.5053 -10.6126)
(-18.0814 1.19763 -10.6126)
(-16.5246 1.09451 -12.9128)
(-18.754 1.05406 -9.39015)
(-19.3215 -1.27977 -8.12652)
(-18.415 -3.70298 -9.39015)
(-15.2752 -6.3976 -12.9128)
(-14.3704 11.0392 -10.6126)
(-14.8229 11.5372 -9.39015)
(-17.5975 6.56921 -9.39015)
(-16.4374 5.64296 -11.7885)
(-14.2962 8.35932 -12.9128)
(-13.7125 9.28589 -12.9128)
(-5.65478 17.2162 -10.6126)
(-10.5909 16.2109 -8.12652)
(-10.4771 14.7852 -10.6126)
(-9.0579 13.8641 -12.9128)
(0.299612 18.1186 -10.6126)
(0.273815 16.5585 -12.9128)
(-0.821866 16.5404 -12.9128)
(4.81898 16.6975 -11.7885)
(5.02315 17.4109 -10.6126)
(10.788 15.3768 -9.39015)
(10.4074 14.8343 -10.6126)
(11.2163 12.1842 -12.9128)
(11.8776 10.221 -13.9804)
(18.079 1.23363 -10.6126)
(18.0429 1.68086 -10.6126)
(18.7393 1.29044 -9.39015)
(19.0998 3.18719 -8.12652)
(16.9366 6.44399 -10.6126)
(16.28 6.08223 -11.7885)
(14.7043 -9.26357 -11.7885)
(18.8474 -4.44254 -8.12652)
(17.6377 -4.1574 -10.6126)
(16.1191 -3.79944 -12.9128)
(15.8327 -4.85645 -12.9128)
(14.7035 -5.41805 -13.9804)
(13.398 -9.73419 -12.9128)
(11.3035 -9.41422 -14.9868)
(7.64018 -14.6931 -12.9128)
(8.36714 -16.8171 -9.39015)
(8.66318 -16.6666 -9.39015)
(13.1148 -14.2465 -8.12652)
(12.7218 -13.8196 -9.39015)
(12.2731 -13.3321 -10.6126)
(8.59455 -14.156 -12.9128)
(-2.66083 -14.4678 -14.9868)
(-2.27953 -12.3945 -16.7982)
(-3.0937 -12.2168 -16.7982)
(-6.69488 -11.9372 -15.9274)
(-12.3551 -2.48415 -16.7982)
(-14.8209 -5.08803 -13.9804)
(-11.2757 -5.62834 -16.7982)
(-12.764 -4.9394 -15.9274)
(-13.8902 4.84347 -14.9868)
(-15.6253 5.48738 -12.9128)
(-15.9846 4.33032 -12.9128)
(-16.4161 2.18424 -12.9128)
(-12.6024 1.54335e-15 -16.7982)
(-12.5748 0.832899 -16.7982)
(-7.68492 13.6561 -13.9804)
(-11.613 11.8067 -12.9128)
(-12.368 11.0133 -12.9128)
(-9.41174 8.3809 -16.7982)
(-7.57372 10.0727 -16.7982)
(2.32329 15.4968 -13.9804)
(7.64018 14.6931 -12.9128)
(8.59455 14.156 -12.9128)
(-2.66083 14.4678 -14.9868)
(-1.45392 12.5182 -16.7982)
(-2.27953 12.3945 -16.7982)
(0.0622411 12.6022 -16.7982)
(0.208367 12.6007 -16.7982)
(5.06397 11.5402 -16.7982)
(5.21168 10.2099 -17.5954)
(4.73963 9.11496 -18.3154)
(2.0292 13.5352 -15.9274)
(11.3035 9.41422 -14.9868)
(7.23791 10.3166 -16.7982)
(11.1397 9.60754 -14.9868)
(12.5955 -0.416678 -16.7982)
(12.4305 -2.07429 -16.7982)
(13.7541 5.21745 -14.9868)
(13.6789 0.452519 -15.9274)
(13.8062 -5.07785 -14.9868)
(12.7909 -4.86942 -15.9274)
(2.75053 -14.451 -14.9868)
(2.91287 -15.3969 -13.9804)
(1.36758 -16.5042 -12.9128)
(0.273815 -16.5585 -12.9128)
(3.53241 -16.1797 -12.9128)
(5.63553 -15.5724 -12.9128)
(7.52063 -12.6427 -14.9868)
(9.68369 -8.06513 -16.7982)
(4.28851 -11.8503 -16.7982)
(2.68809 -12.3124 -16.7982)
(-10.2213 -9.1018 -15.9274)
(-7.57506 -10.0717 -16.7982)
(-5.79892 -5.16378 -19.5117)
(-6.12752 -4.76924 -19.5117)
(-7.1614 -3.00109 -19.5117)
(-9.65214 -3.5189 -18.3154)
(-10.4349 7.06635 -16.7982)
(-10.8791 6.36125 -16.7982)
(-10.1838 1.355 -18.3154)
(-7.34408 2.52123 -19.5117)
(-7.1614 3.00109 -19.5117)
(-6.9474 3.46783 -19.5117)
(-7.49363 5.05461 -18.9551)
(-8.52685 5.73056 -18.3154)
(-4.4345 7.87648 -18.9551)
(-5.79892 5.16378 -19.5117)
(-7.13305 5.55187 -18.9551)
(-2.39946 7.38477 -19.5117)
(-1.90615 7.5272 -19.5117)
(-1.4045 7.63672 -19.5117)
(-0.385008 7.75525 -19.5117)
(5.62502 5.35269 -19.5117)
(5.96648 4.96923 -19.5117)
(10.7658 -3.93721 -17.5954)
(7.6589 1.27804 -19.5117)
(5.62429 -5.35346 -19.5117)
(5.96648 -4.96923 -19.5117)
(6.28186 -4.56404 -19.5117)
(5.66905 -7.04028 -18.9551)
(-2.26067 3.00575 -20.6605)
(6.42482 0.639365 -19.9828)
(5.10752 0.35732 -20.3663)
(7.42343 2.27703 -19.5117)
(7.25671 2.76267 -19.5117)
(7.05826 3.23623 -19.5117)
(6.82894 3.69564 -19.5117)
(3.74251 0.372511 -20.6605)
(3.05229 -20.3594 -4.14479)
(2.69708 -20.0872 -5.49808)
(0.320161 -19.3612 -8.12652)
(-0.960134 -19.3401 -8.12652)
(-0.896198 -7.71291 -19.5117)
(-0.624874 -12.5869 -16.7982)
(1.0407 -12.5593 -16.7982)
(-2.42518 -20.8595 9.32587e-15)
(-7.12409 -19.7057 1.38971)
(-2.42502 -20.4436 4.14479)
(-2.37836 -20.8186 1.38971)
(-1.03214 -20.7905 2.77333)
(7.14616 -19.7467 9.32587e-15)
(7.13049 -19.7034 -1.38971)
(14.0983 -15.3149 -2.77333)
(13.0553 -16.2132 -2.77333)
(11.8237 -16.853 4.14479)
(17.6124 -11.0956 2.77333)
(18.8106 -8.91454 2.77333)
(20.6682 3.44891 1.38971)
(20.6682 3.44891 -1.38971)
(19.0473 8.73323 1.38971)
(19.0473 8.73323 -1.38971)
(18.9219 8.67576 2.77333)
(16.9521 12.3164 1.38971)
(18.3072 9.90735 2.77333)
(17.6124 11.0956 2.77333)
(13.4209 16.0919 1.38971)
(13.1418 16.3206 1.38971)
(13.1418 16.3206 -1.38971)
(14.1549 15.2627 -2.77333)
(9.66693 18.5908 1.38971)
(5.13322 20.3155 -1.38971)
(5.77444 19.9991 -2.77333)
(8.36172 19.0628 -2.77333)
(0.346452 20.9511 1.38971)
(-5.14389 20.3128 1.38971)
(-5.14389 20.3128 -1.38971)
(-2.40394 20.6768 -2.77333)
(-9.04697 18.9003 1.38971)
(-10.0267 18.2421 2.77333)
(-13.6743 15.8771 -1.38971)
(-11.3853 17.4265 -2.77333)
(-14.2117 15.2098 -2.77333)
(-17.2359 11.6719 2.77333)
(-19.3269 8.09572 1.38971)
(-19.3269 8.09572 -1.38971)
(-17.9702 10.5063 -2.77333)
(-20.6445 3.58791 -1.38971)
(-20.7814 -1.20079 -2.77333)
(-20.8161 -2.54923e-15 -2.77333)
(-20.4354 -3.96289 -2.77333)
(-20.9082 -1.38486 -1.38971)
(-16.4268 -12.7855 -2.77333)
(-13.5843 -15.7726 2.77333)
(-12.5121 -16.636 2.77333)
(-11.5397 -17.5452 9.3623e-15)
(2.4721 -18.6203 -9.39015)
(2.37605 -17.9646 -10.6126)
(2.69 -17.9203 -10.6126)
(-3.75278 -0.248567 -20.6605)
(1.51078 3.44423 -20.6605)
(-2.53835 -15.463 -13.9804)
(2.59357 5.91274 -19.9828)
(2.15398 7.46006 -19.5117)
(1.65623 7.58611 -19.5117)
(2.24331 4.60239 -20.3663)
(-4.66728 -6.20554 -19.5117)
(-3.64598 -6.85558 -19.5117)
(-3.72815 -0.496047 -20.6605)
(7.76376 -8.43369 -17.5954)
(7.64786 4.81808 -18.9551)
(-5.89873 -6.84899 -18.9551)
(16.5517 -0.547556 -12.9128)
(-5.12682 15.7472 -12.9128)
(4.13031 -18.9182 -8.12652)
(12.9303 -13.6247 -9.39015)
(19.0464 -3.49195 -8.12652)
(17.3644 7.1626 -9.39015)
(-0.327969 18.7808 -9.39015)
(-0.960134 19.3401 -8.12652)
(-2.23623 19.2343 -8.12652)
(19.4324 -4.09501 -6.82727)
(-20.2368 1.11449 -5.49808)
(-2.63561 -19.6835 6.82727)
(-5.08805 19.1964 6.82727)
(1.59906 19.2977 8.12652)
(0.328351 19.8565 6.82727)
(16.5197 -8.94002 9.39015)
(8.66318 -16.6666 9.39015)
(-3.14353 -17.0924 11.7885)
(-5.65478 17.2162 10.6126)
(11.8776 10.221 13.9804)
(11.2163 12.1842 12.9128)
(-12.764 -4.9394 15.9274)
(-11.2757 -5.62834 16.7982)
(2.0292 13.5352 15.9274)
(0.0622411 12.6022 16.7982)
(11.1397 9.60754 14.9868)
(7.23791 10.3166 16.7982)
(13.6789 0.452519 15.9274)
(4.28851 -11.8503 16.7982)
(-8.52685 5.73056 18.3154)
(-7.49363 5.05461 18.9551)
(-6.70302 3.9194 19.5117)
(-6.9474 3.46783 19.5117)
(-7.1614 3.00109 19.5117)
(-7.34408 2.52123 19.5117)
(9.27385 6.73785 17.5954)
(-6.40015 0.851569 19.9828)
(6.42482 0.639365 19.9828)
(-0.960134 -19.3401 8.12652)
(0.320161 -19.3612 8.12652)
(2.37605 -17.9646 10.6126)
(7.87138e-15 -17.3205 10)
(7.87138e-15 -10 17.3205)
(-8.0795 -18.9242 -0.976123)
(-9.98781 -18.0077 1.42123)
(-10.4264 -17.7879 0.976147)
(-8.52399 -18.7165 -1.42121)
(7.87138e-15 1.99718e-32 20)
(7.87138e-15 -5.17638 19.3185)
(7.87138e-15 -14.1421 14.1421)
(7.87138e-15 -19.3185 5.17638)
(4.48288 -2.58819 19.3185)
(4.48288 2.58819 19.3185)
(-7.23746e-15 5.17638 19.3185)
(-4.48288 2.58819 19.3185)
(-4.48288 -2.58819 19.3185)
(4.64723 -8.85456 17.3205)
(8.22984 -5.68065 17.3205)
(9.92709 -1.20537 17.3205)
(9.35016 3.54605 17.3205)
(6.63123 7.48511 17.3205)
(2.39316 9.70942 17.3205)
(-2.39316 9.70942 17.3205)
(-6.63123 7.48511 17.3205)
(-9.35016 3.54605 17.3205)
(-9.92709 -1.20537 17.3205)
(-8.22984 -5.68065 17.3205)
(-4.64723 -8.85456 17.3205)
(4.8369 -13.2893 14.1421)
(9.09039 -10.8335 14.1421)
(12.2474 -7.07107 14.1421)
(13.9273 -2.45576 14.1421)
(13.9273 2.45576 14.1421)
(12.2474 7.07107 14.1421)
(9.09039 10.8335 14.1421)
(4.8369 13.2893 14.1421)
(-6.13947e-15 14.1421 14.1421)
(-4.8369 13.2893 14.1421)
(-9.09039 10.8335 14.1421)
(-12.2474 7.07107 14.1421)
(-13.9273 2.45576 14.1421)
(-13.9273 -2.45576 14.1421)
(-12.2474 -7.07107 14.1421)
(-9.09039 -10.8335 14.1421)
(-4.8369 -13.2893 14.1421)
(5.10531 -16.551 10)
(9.75699 -14.3109 10)
(13.5417 -10.7992 10)
(16.1232 -6.32789 10)
(17.2721 -1.29436 10)
(16.8862 3.85418 10)
(15 8.66025 10)
(11.7809 12.6968 10)
(7.51509 15.6052 10)
(2.58149 17.1271 10)
(-2.58149 17.1271 10)
(-7.51509 15.6052 10)
(-11.7809 12.6968 10)
(-15 8.66025 10)
(-16.8862 3.85418 10)
(-17.2721 -1.29436 10)
(-16.1232 -6.32789 10)
(-13.5417 -10.7992 10)
(-9.75699 -14.3109 10)
(-5.10531 -16.551 10)
(4.80432 -18.7116 5.17638)
(9.30677 -16.9289 5.17638)
(13.2244 -14.0826 5.17638)
(16.3112 -10.3514 5.17638)
(18.373 -5.96975 5.17638)
(19.2804 -1.21302 5.17638)
(18.9763 3.61993 5.17638)
(17.4799 8.22542 5.17638)
(14.8852 12.3141 5.17638)
(11.3551 15.629 5.17638)
(7.11162 17.9619 5.17638)
(2.42125 19.1662 5.17638)
(-2.42125 19.1662 5.17638)
(-7.11162 17.9619 5.17638)
(-11.3551 15.629 5.17638)
(-14.8852 12.3141 5.17638)
(-17.4799 8.22542 5.17638)
(-18.9763 3.61993 5.17638)
(-19.2804 -1.21302 5.17638)
(-18.373 -5.96975 5.17638)
(-16.3112 -10.3514 5.17638)
(-13.2244 -14.0826 5.17638)
(-9.30677 -16.9289 5.17638)
(-4.80432 -18.7116 5.17638)
(-4.80432 -18.7116 -5.17638)
(-9.30677 -16.9289 -5.17638)
(-13.2244 -14.0826 -5.17638)
(-16.3112 -10.3514 -5.17638)
(-18.373 -5.96975 -5.17638)
(-19.2804 -1.21302 -5.17638)
(-18.9763 3.61993 -5.17638)
(-17.4799 8.22542 -5.17638)
(-14.8852 12.3141 -5.17638)
(-11.3551 15.629 -5.17638)
(-7.11162 17.9619 -5.17638)
(-2.42125 19.1662 -5.17638)
(2.42125 19.1662 -5.17638)
(7.11162 17.9619 -5.17638)
(11.3551 15.629 -5.17638)
(14.8852 12.3141 -5.17638)
(17.4799 8.22542 -5.17638)
(18.9763 3.61993 -5.17638)
(19.2804 -1.21302 -5.17638)
(18.373 -5.96975 -5.17638)
(16.3112 -10.3514 -5.17638)
(13.2244 -14.0826 -5.17638)
(9.30677 -16.9289 -5.17638)
(4.80432 -18.7116 -5.17638)
(-5.10531 -16.551 -10)
(-9.75699 -14.3109 -10)
(-13.5417 -10.7992 -10)
(-16.1232 -6.32789 -10)
(-17.2721 -1.29436 -10)
(-16.8862 3.85418 -10)
(-15 8.66025 -10)
(-11.7809 12.6968 -10)
(-7.51509 15.6052 -10)
(-2.58149 17.1271 -10)
(2.58149 17.1271 -10)
(7.51509 15.6052 -10)
(11.7809 12.6968 -10)
(15 8.66025 -10)
(16.8862 3.85418 -10)
(17.2721 -1.29436 -10)
(16.1232 -6.32789 -10)
(13.5417 -10.7992 -10)
(9.75699 -14.3109 -10)
(5.10531 -16.551 -10)
(-4.8369 -13.2893 -14.1421)
(-9.09039 -10.8335 -14.1421)
(-12.2474 -7.07107 -14.1421)
(-13.9273 -2.45576 -14.1421)
(-13.9273 2.45576 -14.1421)
(-12.2474 7.07107 -14.1421)
(-9.09039 10.8335 -14.1421)
(-4.8369 13.2893 -14.1421)
(-1.21208e-14 14.1421 -14.1421)
(4.8369 13.2893 -14.1421)
(9.09039 10.8335 -14.1421)
(12.2474 7.07107 -14.1421)
(13.9273 2.45576 -14.1421)
(13.9273 -2.45576 -14.1421)
(12.2474 -7.07107 -14.1421)
(9.09039 -10.8335 -14.1421)
(4.8369 -13.2893 -14.1421)
(-4.64723 -8.85456 -17.3205)
(-8.22984 -5.68065 -17.3205)
(-9.92709 -1.20537 -17.3205)
(-9.35016 3.54605 -17.3205)
(-6.63123 7.48511 -17.3205)
(-2.39316 9.70942 -17.3205)
(2.39316 9.70942 -17.3205)
(6.63123 7.48511 -17.3205)
(9.35016 3.54605 -17.3205)
(9.92709 -1.20537 -17.3205)
(8.22984 -5.68065 -17.3205)
(4.64723 -8.85456 -17.3205)
(-4.48288 -2.58819 -19.3185)
(-4.48288 2.58819 -19.3185)
(-1.54081e-14 5.17638 -19.3185)
(4.48288 2.58819 -19.3185)
(4.48288 -2.58819 -19.3185)
(5.68207e-15 -19.3185 -5.17638)
(1.89008e-15 -14.1421 -14.1421)
(-2.9923e-16 -5.17638 -19.3185)
(-5.87458e-16 -1.99718e-32 -20)
(5.45812e-16 -10 -17.3205)
(3.64196e-15 -17.3205 -10)
(-3.4975 -20.2773 -0.976123)
(-5.56571 -19.8257 1.42123)
(-6.04319 -19.7129 0.976147)
(-3.97791 -20.1777 -1.42121)
(-14.1764 -14.9142 0.976123)
(-12.579 -16.3035 -1.42123)
(-12.2034 -16.6191 -0.976147)
(-13.8096 -15.2401 1.42121)
(1.27305 -20.5373 -0.976123)
(-0.843566 -20.5748 1.42123)
(-1.33419 -20.5752 0.976147)
(0.782626 -20.5512 -1.42121)
(-17.2337 -11.2429 0.976123)
(-15.9998 -12.9631 -1.42123)
(-15.7071 -13.3568 -0.976147)
(-16.952 -11.6446 1.42121)
(5.97498 -19.6902 -0.976123)
(3.92406 -20.2148 1.42123)
(3.44673 -20.3283 0.976147)
(5.50097 -19.8168 -1.42121)
(-19.3619 -6.96549 0.976123)
(-18.558 -8.92385 -1.42123)
(-18.364 -9.37449 -0.976147)
(-19.1804 -7.42131 1.42121)
(10.3548 -17.7815 -0.976123)
(8.48013 -18.7649 1.42123)
(8.04184 -18.9854 0.976147)
(9.92275 -18.014 -1.42121)
(-20.4464 -2.31256 0.976123)
(-20.1158 -4.40353 -1.42123)
(-20.0309 -4.88676 -0.976147)
(-20.3749 -2.79795 1.42121)
(14.1764 -14.9142 -0.976123)
(12.579 -16.3035 1.42123)
(12.2034 -16.6191 0.976147)
(13.8096 -15.2401 -1.42121)
(-20.4286 2.46504 0.976123)
(-20.5891 0.354182 -1.42123)
(-20.6179 -0.135593 -0.976147)
(-20.471 1.97625 1.42121)
(17.2337 -11.2429 -0.976123)
(15.9998 -12.9631 1.42123)
(15.7071 -13.3568 0.976147)
(16.952 -11.6446 -1.42121)
(-19.3094 7.10975 0.976123)
(-19.9524 5.0928 -1.42123)
(-20.0935 4.62289 -0.976147)
(-19.4634 6.64391 1.42121)
(19.3619 -6.96549 -0.976123)
(18.558 -8.92385 1.42123)
(18.364 -9.37449 0.976147)
(19.1804 -7.42131 -1.42121)
(-17.1493 11.3712 0.976123)
(-18.2401 9.55687 -1.42123)
(-18.4857 9.13214 -0.976147)
(-17.4066 10.9534 1.42121)
(20.4464 -2.31256 -0.976123)
(20.1158 -4.40353 1.42123)
(20.0309 -4.88676 0.976147)
(20.3749 -2.79795 -1.42121)
(-14.0647 15.0196 0.976123)
(-15.5445 13.5057 -1.42123)
(-15.8814 13.1491 -0.976147)
(-14.4113 14.6724 1.42121)
(20.4286 2.46504 -0.976123)
(20.5891 0.354182 1.42123)
(20.6179 -0.135593 0.976147)
(20.471 1.97625 -1.42121)
(-10.2218 17.8582 0.976123)
(-12.0108 16.7265 -1.42123)
(-12.4209 16.4572 -0.976147)
(-10.6392 17.6004 1.42121)
(19.3094 7.10975 -0.976123)
(19.9524 5.0928 1.42123)
(20.0935 4.62289 0.976147)
(19.4634 6.64391 -1.42121)
(-5.8279 19.7342 0.976123)
(-7.8297 19.0455 -1.42123)
(-8.29085 18.878 -0.976147)
(-6.29351 19.5795 1.42121)
(17.1493 11.3712 -0.976123)
(18.2401 9.55687 1.42123)
(18.4857 9.13214 0.976147)
(17.4066 10.9534 -1.42121)
(-1.11979 20.5463 0.976123)
(-3.22645 20.3378 -1.42123)
(-3.7138 20.2812 -0.976147)
(-1.60852 20.5031 1.42121)
(14.0647 15.0196 -0.976123)
(15.5445 13.5057 1.42123)
(15.8814 13.1491 0.976147)
(14.4113 14.6724 -1.42121)
(3.64869 20.2507 0.976123)
(1.55073 20.5336 -1.42123)
(1.06346 20.5909 -0.976147)
(3.16319 20.3214 1.42121)
(10.2218 17.8582 -0.976123)
(12.0108 16.7265 1.42123)
(12.4209 16.4572 0.976147)
(10.6392 17.6004 -1.42121)
(8.22046 18.8634 0.976123)
(6.24431 19.6225 -1.42123)
(5.78339 19.7907 -0.976147)
(7.76436 19.0442 1.42121)
(-2.34241 -18.2945 10.0411)
(-2.18631 -18.2576 10.1081)
(-2.38552 -18.0688 10.432)
(-2.21822 -18.0701 10.4328)
(-2.18631 -17.8827 10.7575)
(-2.05426 -18.0413 10.4161)
(-2.02471 -17.8677 10.7168)
(-1.90082 -17.9835 10.3828)
(-1.87348 -17.8229 10.661)
(-1.7646 -17.8994 10.3342)
(-1.72036 -17.7031 10.6743)
(-2.09151 -18.4396 9.79282)
(-2.21464 -18.5121 9.66421)
(-1.93654 -18.611 9.49592)
(-2.00683 -18.7137 9.31511)
(-1.72585 -18.7669 9.22596)
(-1.72648 -18.8919 9.00639)
(-1.46552 -18.9027 8.99073)
(-1.38374 -19.0404 8.74919)
(-1.16303 -19.0146 8.79698)
(-0.99098 -19.1538 8.55281)
(-0.827077 -19.0993 8.65029)
(-0.562407 -19.2279 8.42435)
(-0.467333 -19.1543 8.55488)
(-0.113508 -19.2602 8.36845)
(-0.0941439 -19.1782 8.51349)
(0.281753 -19.1703 8.52732)
(0.260928 -19.0601 8.65151)
(0.601535 -19.0234 8.71508)
(0.556603 -18.8923 8.8088)
(0.855755 -18.8322 8.9129)
(0.765631 -18.6943 8.95738)
(1.13029 -18.7477 9.05929)
(1.10021 -18.5892 9.13944)
(1.37231 -18.6412 9.24376)
(1.37962 -18.4495 9.38142)
(1.57485 -18.5157 9.46099)
(1.58985 -18.2822 9.67117)
(1.73208 -18.375 9.70474)
(1.83948 -18.223 9.968)
(1.8719 -18.4644 9.68335)
(1.98798 -18.3001 9.96786)
(2.0213 -18.527 9.64152)
(2.14664 -18.3496 9.94874)
(2.28889 -18.4049 9.85)
(2.37472 -18.1822 10.2357)
(0.339495 -19.2494 8.38714)
(0.649545 -19.1306 8.59597)
(0.924836 -18.9584 8.82759)
(0.780227 -19.196 8.47974)
(0.99865 -19.0605 8.71745)
(1.22153 -18.8671 8.98579)
(1.19276 -19.1018 8.64289)
(1.31903 -18.9618 8.88829)
(1.48309 -18.752 9.18515)
(1.56218 -18.9702 8.87072)
(1.60146 -18.8376 9.10356)
(1.70198 -18.6164 9.41992)
(1.87514 -18.8061 9.15497)
(1.83782 -18.6912 9.35706)
(2.12033 -18.6154 9.48537)
(2.21023 -18.1642 10.2699)
(2.37472 -17.9554 10.6284)
(2.21023 -17.9761 10.5957)
(2.14664 -17.7907 10.9169)
(1.98798 -17.7825 10.8644)
(1.8719 -17.6182 11.1489)
(1.73208 -17.5921 11.0609)
(1.57485 -17.4513 11.3046)
(1.58985 -17.5166 10.9973)
(1.37962 -17.3493 11.287)
(1.37231 -17.3259 11.5218)
(1.10021 -17.2096 11.529)
(1.13029 -17.2194 11.7063)
(0.765631 -17.1045 11.7111)
(0.855755 -17.1349 11.8527)
(0.556603 -17.0748 11.9568)
(0.924836 -17.1241 12.0047)
(0.601535 -17.0592 12.1172)
(0.99865 -17.0798 12.1481)
(0.649545 -17.0096 12.2696)
(0.780227 -16.9417 12.3843)
(0.339495 -16.8882 12.4769)
(2.28889 -17.7328 11.0141)
(2.0213 -17.6133 11.2241)
(1.70198 -17.4661 11.4124)
(2.12033 -17.5223 11.3787)
(1.83782 -17.4491 11.5085)
(1.48309 -17.3306 11.6471)
(1.87514 -17.3315 11.7091)
(1.60146 -17.3027 11.762)
(1.22153 -17.2155 11.8465)
(1.56218 -17.1674 11.9934)
(1.31903 -17.1784 11.9773)
(1.19276 -17.0359 12.2212)
(0.281753 -16.97 12.3383)
(-0.113508 -16.8774 12.4956)
(-0.0941439 -16.962 12.3521)
(-0.467333 -16.9859 12.3107)
(-0.43279 -17.0372 12.1553)
(-0.765945 -17.0882 12.0669)
(-0.708732 -17.1017 11.9102)
(-0.996613 -17.1742 11.7845)
(-0.765631 -17.1045 11.7111)
(-1.10021 -17.2096 11.529)
(-1.25582 -17.2701 11.6185)
(-1.37962 -17.3493 11.287)
(-1.4789 -17.3865 11.4169)
(-1.65944 -17.52 11.1856)
(-1.59829 -17.396 11.5338)
(-1.7934 -17.5404 11.2838)
(-1.72585 -17.3734 11.6396)
(-1.93654 -17.5292 11.3697)
(-2.00683 -17.424 11.549)
(-2.21464 -17.6255 11.1999)
(-0.562407 -16.9097 12.4397)
(-0.827077 -17.041 12.2153)
(-1.07706 -17.1666 11.931)
(-0.99098 -16.9838 12.3113)
(-1.16303 -17.1257 12.0686)
(-1.3572 -17.2702 11.7516)
(-1.38374 -17.0972 12.1149)
(-1.46552 -17.2376 11.8749)
(-1.72648 -17.2457 11.8577)
(-2.09151 -17.7006 11.0728)
(-2.34241 -17.8431 10.823)
(-1.79224 -17.6669 10.9312)
(-1.58985 -17.5166 10.9973)
(-0.39266 -17.0392 11.8241)
(-0.400463 -17.0545 11.992)
(-0.0871853 -17.0151 12.1936)
(-0.080673 -17.034 12.0275)
(7.72882e-15 -17.0171 11.8624)
(0.241438 -17.0408 12.0156)
(0.39266 -17.0392 11.8241)
(1.83948 -17.7441 10.7976)
(1.72036 -17.7031 10.6743)
(1.89397 -17.9029 10.5224)
(1.7646 -17.8994 10.3342)
(1.89397 -18.0641 10.2432)
(1.72036 -18.0957 9.99417)
(0.39266 -18.7596 8.84436)
(0.241438 -18.9262 8.74997)
(-0.0871853 -19.0675 8.6387)
(7.14179e-15 -18.7817 8.80604)
(-0.080673 -18.9331 8.73812)
(-0.43279 -19.0454 8.67703)
(-0.39266 -18.7596 8.84436)
(-0.400463 -18.9126 8.77359)
(-0.765945 -18.9943 8.76538)
(-0.708732 -18.8654 8.85535)
(-0.765631 -18.6943 8.95738)
(-0.996613 -18.7928 8.98105)
(-1.10021 -18.5892 9.13944)
(-1.25582 -18.697 9.14707)
(-1.37962 -18.4495 9.38142)
(-1.4789 -18.5806 9.34865)
(-1.65944 -18.447 9.57998)
(-1.7934 -18.5422 9.54851)
(-1.93692 -18.3835 9.82347)
(-1.58985 -18.2822 9.67117)
(-1.79224 -18.3002 9.8344)
(-2.02471 -18.2149 10.1155)
(-1.72036 -18.0957 9.99417)
(-1.87348 -18.1442 10.1046)
(-1.59829 -18.6865 9.29851)
(-1.3572 -18.8123 9.08066)
(-1.07706 -18.9159 8.90123)
(2.04686 -18.1284 10.2653)
(2.04686 -17.9542 10.567)
(0.260928 -17.0225 12.1808)
(-1.93692 -17.6991 11.0088)
(-2.34241 -10.0411 18.2945)
(-2.65404 -10.1668 18.1822)
(-2.38552 -10.432 18.0688)
(-2.83656 -10.5146 17.9554)
(-2.62124 -11.1594 17.5954)
(-2.81403 -11.1123 17.5954)
(-2.90104 -12.2639 16.7982)
(-3.42541 -12.8986 16.2139)
(-3.7675 -12.6323 16.3472)
(-3.89435 -11.9856 16.7982)
(-4.15579 -12.4106 16.4228)
(-4.57626 -12.2413 16.438)
(-4.67797 -11.702 16.7982)
(-5.01369 -12.1306 16.3924)