/*--------------------------------*- C++ -*----------------------------------*\
  =========                 |
  \\      /  F ield         | OpenFOAM: The Open Source CFD Toolbox
   \\    /   O peration     | Website:  https://openfoam.org
    \\  /    A nd           | Version:  7
     \\/     M anipulation  |
\*---------------------------------------------------------------------------*/
FoamFile
{
    version     2.0;
    format      ascii;
    class       volScalarField;
    location    "0";
    object      omega;
}
// * * * * * * * * * * * * * * * * * * * * * * * * * * * * * * * * * * * * * //

dimensions      [0 0 -1 0 0 0 0];

internalField   uniform 0.53;

boundaryField
{
    inletWall
    {
        type            fixedValue;
        value           $internalField;
    }
    outletWall
    {
        type            zeroGradient;
    }
    "sphere*"
    {
        type            omegaWallFunction;
        value           $internalField;
    }
    sym
    {
        type            symmetry;
    }
    Wall
    {
        type            omegaWallFunction;
        value           $internalField;
    }
   
}


// ************************************************************************* //
